<?xml version="1.0" encoding="UTF-8"?>

<!-- generated on 2023-09-10 10:59:12 by Eclipse SUMO netedit Version 1.16.0
<configuration xmlns:xsi="http://www.w3.org/2001/XMLSchema-instance" xsi:noNamespaceSchemaLocation="http://sumo.dlr.de/xsd/netconvertConfiguration.xsd">

    <input>
        <sumo-net-file value="/home/reboldi/src/veins/examples/Monza/sumocfg/Monza.net.xml"/>
    </input>

    <output>
        <output-file value="/home/reboldi/src/veins/examples/Monza/sumocfg/Monza.net.xml"/>
    </output>

    <processing>
        <geometry.min-radius.fix.railways value="false"/>
        <geometry.max-grade.fix value="false"/>
        <offset.disable-normalization value="true"/>
        <lefthand value="0"/>
    </processing>

    <junctions>
        <no-turnarounds value="true"/>
        <junctions.corner-detail value="5"/>
        <junctions.limit-turn-speed value="5.50"/>
        <rectangular-lane-cut value="0"/>
    </junctions>

    <pedestrian>
        <walkingareas value="0"/>
    </pedestrian>

</configuration>
-->

<net version="1.16" junctionCornerDetail="5" limitTurnSpeed="5.50" xmlns:xsi="http://www.w3.org/2001/XMLSchema-instance" xsi:noNamespaceSchemaLocation="http://sumo.dlr.de/xsd/net_file.xsd">

    <location netOffset="0.00,0.00" convBoundary="-718.90,200.00,1371.44,1141.26" origBoundary="-10000000000.00,-10000000000.00,10000000000.00,10000000000.00" projParameter="!"/>

    <edge id=":J0_0" function="internal">
        <lane id=":J0_0_0" index="0" speed="97.20" length="0.26" shape="1093.18,210.83 1093.10,210.83"/>
        <lane id=":J0_0_1" index="1" speed="97.20" length="0.26" shape="1093.38,207.64 1093.12,207.63"/>
        <lane id=":J0_0_2" index="2" speed="97.20" length="0.26" shape="1093.58,204.44 1093.15,204.43"/>
    </edge>
    <edge id=":J1_0" function="internal">
        <lane id=":J1_0_0" index="0" speed="97.20" length="1.35" shape="1.36,208.00 1.22,208.00 1.13,208.01 1.04,208.03 0.91,208.06"/>
        <lane id=":J1_0_1" index="1" speed="19.92" length="1.35" shape="1.36,204.80 0.96,204.80 0.68,204.82 0.41,204.88 0.03,204.99"/>
        <lane id=":J1_0_2" index="2" speed="25.67" length="1.35" shape="1.36,201.60 0.69,201.61 0.23,201.64 -0.22,201.73 -0.86,201.91"/>
    </edge>
    <edge id=":J10_0" function="internal">
        <lane id=":J10_0_0" index="0" speed="97.20" length="0.30" shape="740.37,208.00 740.10,208.00"/>
        <lane id=":J10_0_1" index="1" speed="97.20" length="0.30" shape="740.40,204.80 740.10,204.80"/>
        <lane id=":J10_0_2" index="2" speed="97.20" length="0.30" shape="740.42,201.60 740.10,201.60"/>
    </edge>
    <edge id=":J100_0" function="internal">
        <lane id=":J100_0_0" index="0" speed="97.20" length="1.25" shape="1339.42,440.24 1339.52,440.18 1339.60,440.13 1339.66,440.08 1339.75,439.99"/>
        <lane id=":J100_0_1" index="1" speed="97.20" length="1.25" shape="1340.95,443.04 1341.28,442.86 1341.49,442.72 1341.69,442.56 1341.96,442.31"/>
        <lane id=":J100_0_2" index="2" speed="97.20" length="1.25" shape="1342.49,445.85 1343.03,445.55 1343.39,445.32 1343.72,445.05 1344.17,444.62"/>
    </edge>
    <edge id=":J101_0" function="internal">
        <lane id=":J101_0_0" index="0" speed="97.20" length="1.66" shape="1352.19,428.15 1352.30,428.03 1352.38,427.95 1352.44,427.85 1352.51,427.71"/>
        <lane id=":J101_0_1" index="1" speed="10.75" length="1.66" shape="1354.39,430.46 1354.74,430.12 1354.97,429.87 1355.15,429.58 1355.37,429.14"/>
        <lane id=":J101_0_2" index="2" speed="13.78" length="1.66" shape="1356.60,432.78 1357.19,432.21 1357.56,431.79 1357.85,431.31 1358.23,430.58"/>
    </edge>
    <edge id=":J102_0" function="internal">
        <lane id=":J102_0_0" index="0" speed="97.20" length="1.66" shape="1360.39,412.04 1360.46,411.89 1360.50,411.79 1360.53,411.68 1360.55,411.51"/>
        <lane id=":J102_0_1" index="1" speed="10.68" length="1.66" shape="1363.25,413.48 1363.47,413.04 1363.59,412.72 1363.66,412.39 1363.73,411.90"/>
        <lane id=":J102_0_2" index="2" speed="13.69" length="1.66" shape="1366.11,414.92 1366.47,414.18 1366.68,413.65 1366.80,413.10 1366.90,412.29"/>
    </edge>
    <edge id=":J103_0" function="internal">
        <lane id=":J103_0_0" index="0" speed="97.20" length="0.84" shape="1363.40,388.07 1363.41,387.99 1363.41,387.93 1363.41,387.88 1363.41,387.79"/>
        <lane id=":J103_0_1" index="1" speed="97.20" length="0.84" shape="1366.57,388.46 1366.60,388.21 1366.61,388.04 1366.61,387.87 1366.60,387.62"/>
        <lane id=":J103_0_2" index="2" speed="97.20" length="0.84" shape="1369.75,388.84 1369.80,388.43 1369.82,388.15 1369.82,387.86 1369.80,387.45"/>
    </edge>
    <edge id=":J104_0" function="internal">
        <lane id=":J104_0_0" index="0" speed="97.20" length="0.59" shape="1361.78,357.86 1361.78,357.80 1361.78,357.76 1361.77,357.72 1361.76,357.67"/>
        <lane id=":J104_0_1" index="1" speed="97.20" length="0.59" shape="1364.98,357.69 1364.97,357.51 1364.96,357.39 1364.94,357.28 1364.91,357.10"/>
        <lane id=":J104_0_2" index="2" speed="97.20" length="0.59" shape="1368.17,357.51 1368.16,357.22 1368.14,357.03 1368.11,356.83 1368.06,356.54"/>
    </edge>
    <edge id=":J105_0" function="internal">
        <lane id=":J105_0_0" index="0" speed="97.20" length="1.95" shape="1357.97,336.45 1357.93,336.26 1357.90,336.13 1357.84,336.01 1357.73,335.85"/>
        <lane id=":J105_0_1" index="1" speed="8.92" length="1.95" shape="1361.12,335.88 1361.01,335.32 1360.90,334.93 1360.72,334.58 1360.41,334.09"/>
        <lane id=":J105_0_2" index="2" speed="11.39" length="1.95" shape="1364.27,335.32 1364.09,334.37 1363.90,333.74 1363.60,333.14 1363.08,332.33"/>
    </edge>
    <edge id=":J106_0" function="internal">
        <lane id=":J106_0_0" index="0" speed="97.20" length="0.92" shape="1339.82,308.59 1339.77,308.52 1339.73,308.47 1339.69,308.42 1339.63,308.36"/>
        <lane id=":J106_0_1" index="1" speed="97.20" length="0.92" shape="1342.50,306.84 1342.34,306.61 1342.23,306.46 1342.11,306.32 1341.92,306.12"/>
        <lane id=":J106_0_2" index="2" speed="97.20" length="0.92" shape="1345.17,305.08 1344.92,304.70 1344.73,304.45 1344.53,304.21 1344.21,303.89"/>
    </edge>
    <edge id=":J107_0" function="internal">
        <lane id=":J107_0_0" index="0" speed="97.20" length="1.33" shape="1307.30,275.21 1307.21,275.12 1307.14,275.06 1307.06,275.01 1306.95,274.94"/>
        <lane id=":J107_0_1" index="1" speed="21.99" length="1.33" shape="1309.59,272.98 1309.31,272.70 1309.11,272.52 1308.88,272.37 1308.54,272.17"/>
        <lane id=":J107_0_2" index="2" speed="28.34" length="1.33" shape="1311.88,270.75 1311.42,270.28 1311.08,269.98 1310.70,269.72 1310.13,269.39"/>
    </edge>
    <edge id=":J108_0" function="internal">
        <lane id=":J108_0_0" index="0" speed="97.20" length="0.95" shape="1245.35,239.62 1245.27,239.57 1245.21,239.55 1245.15,239.52 1245.07,239.49"/>
        <lane id=":J108_0_1" index="1" speed="97.20" length="0.95" shape="1246.94,236.85 1246.70,236.71 1246.53,236.62 1246.35,236.55 1246.08,236.46"/>
        <lane id=":J108_0_2" index="2" speed="97.20" length="0.95" shape="1248.54,234.07 1248.13,233.84 1247.84,233.69 1247.54,233.58 1247.10,233.43"/>
    </edge>
    <edge id=":J109_0" function="internal">
        <lane id=":J109_0_0" index="0" speed="97.20" length="1.26" shape="1175.04,215.98 1174.92,215.94 1174.84,215.92 1174.76,215.90 1174.63,215.90"/>
        <lane id=":J109_0_1" index="1" speed="97.20" length="1.26" shape="1176.06,212.94 1175.71,212.83 1175.46,212.76 1175.20,212.73 1174.83,212.70"/>
        <lane id=":J109_0_2" index="2" speed="97.20" length="1.26" shape="1177.08,209.91 1176.49,209.72 1176.07,209.61 1175.65,209.55 1175.03,209.51"/>
    </edge>
    <edge id=":J17_0" function="internal">
        <lane id=":J17_0_0" index="0" speed="97.20" length="0.44" shape="-338.85,208.77 -338.90,208.77 -338.93,208.77 -338.96,208.77 -339.00,208.78"/>
        <lane id=":J17_0_1" index="1" speed="97.20" length="0.44" shape="-338.92,205.57 -339.05,205.57 -339.14,205.58 -339.22,205.58 -339.35,205.60"/>
        <lane id=":J17_0_2" index="2" speed="97.20" length="0.44" shape="-338.98,202.37 -339.20,202.38 -339.35,202.38 -339.49,202.40 -339.71,202.42"/>
    </edge>
    <edge id=":J18_0" function="internal">
        <lane id=":J18_0_0" index="0" speed="97.20" length="0.72" shape="-382.54,213.62 -382.61,213.63 -382.66,213.64 -382.71,213.65 -382.77,213.67"/>
        <lane id=":J18_0_1" index="1" speed="97.20" length="0.72" shape="-382.89,210.44 -383.11,210.47 -383.25,210.49 -383.39,210.52 -383.60,210.57"/>
        <lane id=":J18_0_2" index="2" speed="97.20" length="0.72" shape="-383.25,207.26 -383.60,207.30 -383.84,207.34 -384.08,207.39 -384.42,207.48"/>
    </edge>
    <edge id=":J19_0" function="internal">
        <lane id=":J19_0_0" index="0" speed="97.20" length="1.20" shape="-418.14,223.10 -418.26,223.13 -418.33,223.16 -418.41,223.19 -418.51,223.25"/>
        <lane id=":J19_0_1" index="1" speed="97.20" length="1.20" shape="-418.97,220.01 -419.31,220.10 -419.54,220.18 -419.76,220.29 -420.08,220.46"/>
        <lane id=":J19_0_2" index="2" speed="97.20" length="1.20" shape="-419.79,216.92 -420.37,217.07 -420.75,217.20 -421.12,217.38 -421.64,217.67"/>
    </edge>
    <edge id=":J2_0" function="internal">
        <lane id=":J2_0_0" index="0" speed="97.20" length="1.97" shape="-5.94,210.76 -6.11,210.84 -6.23,210.91 -6.33,211.00 -6.46,211.15"/>
        <lane id=":J2_0_1" index="1" speed="8.85" length="1.97" shape="-7.31,207.87 -7.83,208.12 -8.17,208.33 -8.47,208.61 -8.86,209.04"/>
        <lane id=":J2_0_2" index="2" speed="11.29" length="1.97" shape="-8.68,204.97 -9.55,205.40 -10.12,205.76 -10.62,206.21 -11.27,206.93"/>
    </edge>
    <edge id=":J20_0" function="internal">
        <lane id=":J20_0_0" index="0" speed="97.20" length="1.20" shape="-447.44,239.45 -447.54,239.51 -447.61,239.55 -447.67,239.61 -447.76,239.69"/>
        <lane id=":J20_0_1" index="1" speed="97.20" length="1.20" shape="-449.00,236.66 -449.31,236.83 -449.52,236.97 -449.70,237.12 -449.96,237.37"/>
        <lane id=":J20_0_2" index="2" speed="97.20" length="1.20" shape="-450.56,233.87 -451.08,234.16 -451.42,234.38 -451.74,234.64 -452.17,235.05"/>
    </edge>
    <edge id=":J21_0" function="internal">
        <lane id=":J21_0_0" index="0" speed="97.20" length="1.37" shape="-471.96,262.73 -472.06,262.82 -472.12,262.89 -472.17,262.97 -472.24,263.08"/>
        <lane id=":J21_0_1" index="1" speed="18.54" length="1.37" shape="-474.17,260.41 -474.46,260.69 -474.64,260.90 -474.80,261.13 -475.01,261.48"/>
        <lane id=":J21_0_2" index="2" speed="23.87" length="1.37" shape="-476.37,258.09 -476.86,258.56 -477.17,258.91 -477.43,259.29 -477.78,259.87"/>
    </edge>
    <edge id=":J22_0" function="internal">
        <lane id=":J22_0_0" index="0" speed="97.20" length="0.89" shape="-493.44,299.61 -493.49,299.68 -493.52,299.74 -493.54,299.79 -493.57,299.88"/>
        <lane id=":J22_0_1" index="1" speed="97.20" length="0.89" shape="-496.21,298.00 -496.34,298.23 -496.43,298.39 -496.49,298.56 -496.58,298.80"/>
        <lane id=":J22_0_2" index="2" speed="97.20" length="0.89" shape="-498.98,296.39 -499.20,296.77 -499.34,297.04 -499.45,297.32 -499.60,297.73"/>
    </edge>
    <edge id=":J23_0" function="internal">
        <lane id=":J23_0_0" index="0" speed="97.20" length="0.40" shape="-506.80,337.14 -506.84,337.27"/>
        <lane id=":J23_0_1" index="1" speed="97.20" length="0.40" shape="-509.81,336.07 -509.93,336.45"/>
        <lane id=":J23_0_2" index="2" speed="97.20" length="0.40" shape="-512.83,335.00 -513.02,335.63"/>
    </edge>
    <edge id=":J24_0" function="internal">
        <lane id=":J24_0_0" index="0" speed="97.20" length="0.66" shape="-519.75,386.14 -519.76,386.20 -519.77,386.25 -519.78,386.29 -519.79,386.35"/>
        <lane id=":J24_0_1" index="1" speed="97.20" length="0.66" shape="-522.84,385.32 -522.89,385.51 -522.92,385.64 -522.94,385.77 -522.97,385.96"/>
        <lane id=":J24_0_2" index="2" speed="97.20" length="0.66" shape="-525.94,384.50 -526.02,384.82 -526.07,385.03 -526.10,385.25 -526.14,385.58"/>
    </edge>
    <edge id=":J25_0" function="internal">
        <lane id=":J25_0_0" index="0" speed="47.35" length="1.29" shape="-563.38,742.51 -563.46,743.14 -563.55,743.57 -563.68,743.98 -563.92,744.57"/>
        <lane id=":J25_0_1" index="1" speed="36.70" length="1.29" shape="-566.56,742.12 -566.60,742.50 -566.66,742.76 -566.74,743.01 -566.88,743.36"/>
        <lane id=":J25_0_2" index="2" speed="97.20" length="1.29" shape="-569.73,741.73 -569.75,741.86 -569.77,741.95 -569.79,742.03 -569.84,742.15"/>
    </edge>
    <edge id=":J29_0" function="internal">
        <lane id=":J29_0_0" index="0" speed="97.20" length="1.15" shape="-566.03,749.72 -566.25,750.25 -566.42,750.60 -566.62,750.93 -566.95,751.39"/>
        <lane id=":J29_0_1" index="1" speed="97.20" length="1.15" shape="-568.99,748.51 -569.12,748.82 -569.22,749.03 -569.35,749.23 -569.54,749.51"/>
        <lane id=":J29_0_2" index="2" speed="97.20" length="1.15" shape="-571.95,747.30 -571.99,747.40 -572.03,747.47 -572.07,747.54 -572.13,747.63"/>
    </edge>
    <edge id=":J3_0" function="internal">
        <lane id=":J3_0_0" index="0" speed="97.20" length="0.48" shape="-8.81,217.37 -8.81,217.42 -8.81,217.45 -8.81,217.48 -8.81,217.53"/>
        <lane id=":J3_0_1" index="1" speed="97.20" length="0.48" shape="-12.00,217.15 -12.01,217.29 -12.01,217.39 -12.01,217.49 -12.01,217.63"/>
        <lane id=":J3_0_2" index="2" speed="97.20" length="0.48" shape="-15.19,216.93 -15.21,217.17 -15.21,217.33 -15.21,217.49 -15.21,217.73"/>
    </edge>
    <edge id=":J30_0" function="internal">
        <lane id=":J30_0_0" index="0" speed="9.94" length="2.39" shape="-569.46,754.85 -570.17,755.79 -570.74,756.38 -571.42,756.83 -572.47,757.36"/>
        <lane id=":J30_0_1" index="1" speed="7.81" length="2.39" shape="-572.05,752.97 -572.48,753.53 -572.82,753.89 -573.23,754.16 -573.86,754.47"/>
        <lane id=":J30_0_2" index="2" speed="97.20" length="2.39" shape="-574.64,751.09 -574.79,751.28 -574.90,751.40 -575.04,751.49 -575.25,751.59"/>
    </edge>
    <edge id=":J31_0" function="internal">
        <lane id=":J31_0_0" index="0" speed="97.20" length="0.98" shape="-576.35,759.23 -576.79,759.43 -577.09,759.56 -577.41,759.66 -577.88,759.78"/>
        <lane id=":J31_0_1" index="1" speed="97.20" length="0.98" shape="-577.74,756.34 -578.00,756.47 -578.18,756.55 -578.37,756.60 -578.66,756.68"/>
        <lane id=":J31_0_2" index="2" speed="97.20" length="0.98" shape="-579.13,753.46 -579.21,753.50 -579.27,753.53 -579.34,753.55 -579.43,753.57"/>
    </edge>
    <edge id=":J32_0" function="internal">
        <lane id=":J32_0_0" index="0" speed="97.20" length="0.69" shape="-619.92,770.28 -619.99,770.30 -620.03,770.31 -620.08,770.33 -620.14,770.36"/>
        <lane id=":J32_0_1" index="1" speed="97.20" length="0.69" shape="-620.70,767.18 -620.90,767.23 -621.03,767.27 -621.16,767.32 -621.35,767.39"/>
        <lane id=":J32_0_2" index="2" speed="97.20" length="0.69" shape="-621.47,764.08 -621.80,764.16 -622.03,764.22 -622.25,764.30 -622.56,764.43"/>
    </edge>
    <edge id=":J33_0" function="internal">
        <lane id=":J33_0_0" index="0" speed="97.20" length="2.78" shape="-620.99,770.70 -621.24,770.81 -621.40,770.91 -621.54,771.05 -621.70,771.27"/>
        <lane id=":J33_0_1" index="1" speed="7.31" length="2.78" shape="-622.20,767.74 -622.95,768.07 -623.44,768.37 -623.84,768.78 -624.32,769.44"/>
        <lane id=":J33_0_2" index="2" speed="9.28" length="2.78" shape="-623.41,764.78 -624.67,765.32 -625.48,765.82 -626.14,766.50 -626.95,767.61"/>
    </edge>
    <edge id=":J34_0" function="internal">
        <lane id=":J34_0_0" index="0" speed="97.20" length="1.13" shape="-621.87,771.52 -621.94,771.61 -621.97,771.68 -622.01,771.75 -622.05,771.85"/>
        <lane id=":J34_0_1" index="1" speed="97.20" length="1.13" shape="-624.50,769.69 -624.69,769.96 -624.81,770.16 -624.90,770.37 -625.03,770.68"/>
        <lane id=":J34_0_2" index="2" speed="97.20" length="1.13" shape="-627.12,767.86 -627.44,768.32 -627.64,768.64 -627.80,768.99 -628.00,769.51"/>
    </edge>
    <edge id=":J35_0" function="internal">
        <lane id=":J35_0_0" index="0" speed="97.20" length="0.40" shape="-623.17,774.70 -623.21,774.83"/>
        <lane id=":J35_0_1" index="1" speed="97.20" length="0.40" shape="-626.15,773.53 -626.28,773.90"/>
        <lane id=":J35_0_2" index="2" speed="97.20" length="0.40" shape="-629.13,772.36 -629.34,772.98"/>
    </edge>
    <edge id=":J36_0" function="internal">
        <lane id=":J36_0_0" index="0" speed="97.20" length="2.81" shape="-710.42,1064.48 -710.49,1064.75 -710.52,1064.94 -710.49,1065.13 -710.42,1065.39"/>
        <lane id=":J36_0_1" index="1" speed="7.29" length="2.81" shape="-713.48,1063.56 -713.70,1064.36 -713.78,1064.93 -713.71,1065.50 -713.49,1066.30"/>
        <lane id=":J36_0_2" index="2" speed="9.26" length="2.81" shape="-716.54,1062.64 -716.91,1063.96 -717.04,1064.92 -716.92,1065.87 -716.56,1067.20"/>
    </edge>
    <edge id=":J37_0" function="internal">
        <lane id=":J37_0_0" index="0" speed="97.20" length="1.92" shape="-705.56,1081.92 -705.51,1082.10 -705.46,1082.23 -705.38,1082.34 -705.27,1082.48"/>
        <lane id=":J37_0_1" index="1" speed="9.04" length="1.92" shape="-708.63,1082.83 -708.46,1083.37 -708.31,1083.73 -708.10,1084.06 -707.75,1084.51"/>
        <lane id=":J37_0_2" index="2" speed="11.54" length="1.92" shape="-711.70,1083.73 -711.42,1084.63 -711.17,1085.24 -710.81,1085.79 -710.22,1086.53"/>
    </edge>
    <edge id=":J38_0" function="internal">
        <lane id=":J38_0_0" index="0" speed="97.20" length="2.63" shape="-696.06,1093.77 -695.89,1093.96 -695.76,1094.08 -695.60,1094.17 -695.36,1094.26"/>
        <lane id=":J38_0_1" index="1" speed="7.48" length="2.63" shape="-698.54,1095.79 -698.04,1096.38 -697.64,1096.74 -697.16,1097.00 -696.44,1097.27"/>
        <lane id=":J38_0_2" index="2" speed="9.50" length="2.63" shape="-701.02,1097.81 -700.18,1098.80 -699.52,1099.40 -698.73,1099.83 -697.52,1100.28"/>
    </edge>
    <edge id=":J39_0" function="internal">
        <lane id=":J39_0_0" index="0" speed="97.20" length="0.64" shape="-674.11,1101.88 -674.05,1101.90 -674.00,1101.92 -673.96,1101.93 -673.90,1101.94"/>
        <lane id=":J39_0_1" index="1" speed="97.20" length="0.64" shape="-675.19,1104.89 -675.01,1104.96 -674.88,1105.00 -674.75,1105.03 -674.57,1105.07"/>
        <lane id=":J39_0_2" index="2" speed="97.20" length="0.64" shape="-676.27,1107.91 -675.97,1108.01 -675.76,1108.08 -675.55,1108.13 -675.24,1108.20"/>
    </edge>
    <edge id=":J4_0" function="internal">
        <lane id=":J4_0_0" index="0" speed="97.20" length="0.65" shape="-8.27,234.93 -8.27,235.26 -8.27,235.48 -8.28,235.70 -8.31,236.02"/>
        <lane id=":J4_0_1" index="1" speed="97.20" length="0.65" shape="-11.47,235.03 -11.47,235.23 -11.47,235.36 -11.48,235.49 -11.50,235.69"/>
        <lane id=":J4_0_2" index="2" speed="97.20" length="0.65" shape="-14.67,235.13 -14.67,235.20 -14.67,235.24 -14.67,235.28 -14.68,235.35"/>
    </edge>
    <edge id=":J42_0" function="internal">
        <lane id=":J42_0_0" index="0" speed="97.20" length="0.32" shape="-444.97,1132.34 -444.86,1132.35"/>
        <lane id=":J42_0_1" index="1" speed="97.20" length="0.32" shape="-445.37,1135.52 -445.05,1135.55"/>
        <lane id=":J42_0_2" index="2" speed="97.20" length="0.32" shape="-445.78,1138.69 -445.24,1138.74"/>
    </edge>
    <edge id=":J5_0" function="internal">
        <lane id=":J5_0_0" index="0" speed="97.20" length="0.41" shape="-29.29,248.24 -29.94,248.05"/>
        <lane id=":J5_0_1" index="1" speed="97.20" length="0.41" shape="-28.54,245.13 -28.93,245.02"/>
        <lane id=":J5_0_2" index="2" speed="97.20" length="0.41" shape="-27.79,242.02 -27.92,241.98"/>
    </edge>
    <edge id=":J6_0" function="internal">
        <lane id=":J6_0_0" index="0" speed="97.20" length="0.30" shape="-39.99,244.71 -40.26,244.62"/>
        <lane id=":J6_0_1" index="1" speed="97.20" length="0.30" shape="-38.98,241.68 -39.26,241.58"/>
        <lane id=":J6_0_2" index="2" speed="97.20" length="0.30" shape="-37.97,238.64 -38.27,238.54"/>
    </edge>
    <edge id=":J7_0" function="internal">
        <lane id=":J7_0_0" index="0" speed="97.20" length="0.99" shape="-127.91,215.98 -128.00,215.95 -128.07,215.94 -128.13,215.93 -128.23,215.91"/>
        <lane id=":J7_0_1" index="1" speed="97.20" length="0.99" shape="-126.91,212.94 -127.20,212.85 -127.39,212.80 -127.59,212.77 -127.88,212.73"/>
        <lane id=":J7_0_2" index="2" speed="97.20" length="0.99" shape="-125.92,209.90 -126.39,209.75 -126.71,209.66 -127.05,209.61 -127.53,209.55"/>
    </edge>
    <edge id=":J78_0" function="internal">
        <lane id=":J78_0_0" index="0" speed="97.20" length="0.52" shape="-429.87,1133.24 -429.82,1133.25 -429.79,1133.25 -429.75,1133.25 -429.70,1133.24"/>
        <lane id=":J78_0_1" index="1" speed="97.20" length="0.52" shape="-430.06,1136.44 -429.91,1136.45 -429.80,1136.45 -429.70,1136.45 -429.55,1136.44"/>
        <lane id=":J78_0_2" index="2" speed="97.20" length="0.52" shape="-430.25,1139.63 -430.00,1139.65 -429.82,1139.65 -429.65,1139.65 -429.39,1139.64"/>
    </edge>
    <edge id=":J79_0" function="internal">
        <lane id=":J79_0_0" index="0" speed="97.20" length="1.50" shape="-416.58,1132.61 -416.43,1132.60 -416.33,1132.59 -416.23,1132.56 -416.09,1132.51"/>
        <lane id=":J79_0_1" index="1" speed="13.11" length="1.50" shape="-416.42,1135.81 -415.98,1135.78 -415.68,1135.74 -415.39,1135.66 -414.97,1135.51"/>
        <lane id=":J79_0_2" index="2" speed="16.83" length="1.50" shape="-416.27,1139.00 -415.53,1138.96 -415.03,1138.89 -414.54,1138.76 -413.84,1138.50"/>
    </edge>
    <edge id=":J8_0" function="internal">
        <lane id=":J8_0_0" index="0" speed="97.20" length="0.52" shape="-200.35,208.01 -200.40,208.00 -200.44,208.00 -200.47,208.00 -200.52,208.00"/>
        <lane id=":J8_0_1" index="1" speed="97.20" length="0.52" shape="-200.00,204.83 -200.16,204.81 -200.26,204.80 -200.37,204.80 -200.52,204.80"/>
        <lane id=":J8_0_2" index="2" speed="97.20" length="0.52" shape="-199.65,201.65 -199.91,201.62 -200.09,201.61 -200.27,201.60 -200.52,201.60"/>
    </edge>
    <edge id=":J80_0" function="internal">
        <lane id=":J80_0_0" index="0" speed="97.20" length="1.72" shape="-401.33,1126.97 -401.17,1126.91 -401.07,1126.86 -400.97,1126.79 -400.84,1126.68"/>
        <lane id=":J80_0_1" index="1" speed="10.22" length="1.72" shape="-400.21,1129.96 -399.73,1129.78 -399.42,1129.63 -399.13,1129.42 -398.74,1129.09"/>
        <lane id=":J80_0_2" index="2" speed="13.08" length="1.72" shape="-399.08,1132.96 -398.29,1132.65 -397.77,1132.40 -397.29,1132.06 -396.65,1131.51"/>
    </edge>
    <edge id=":J81_0" function="internal">
        <lane id=":J81_0_0" index="0" speed="97.20" length="1.94" shape="-390.35,1117.56 -390.20,1117.43 -390.11,1117.33 -390.04,1117.22 -389.96,1117.05"/>
        <lane id=":J81_0_1" index="1" speed="8.97" length="1.94" shape="-388.25,1119.97 -387.82,1119.59 -387.55,1119.30 -387.34,1118.96 -387.08,1118.45"/>
        <lane id=":J81_0_2" index="2" speed="11.45" length="1.94" shape="-386.15,1122.39 -385.43,1121.75 -384.98,1121.26 -384.63,1120.70 -384.20,1119.85"/>
    </edge>
    <edge id=":J83_0" function="internal">
        <lane id=":J83_0_0" index="0" speed="97.20" length="1.15" shape="-228.93,786.27 -228.68,785.76 -228.49,785.42 -228.26,785.10 -227.90,784.66"/>
        <lane id=":J83_0_1" index="1" speed="97.20" length="1.15" shape="-226.06,787.67 -225.90,787.36 -225.79,787.16 -225.65,786.97 -225.43,786.71"/>
        <lane id=":J83_0_2" index="2" speed="97.20" length="1.15" shape="-223.18,789.07 -223.13,788.97 -223.09,788.90 -223.04,788.84 -222.97,788.75"/>
    </edge>
    <edge id=":J84_0" function="internal">
        <lane id=":J84_0_0" index="0" speed="20.51" length="1.41" shape="-0.07,509.97 0.38,509.44 0.72,509.10 1.09,508.80 1.67,508.41"/>
        <lane id=":J84_0_1" index="1" speed="15.94" length="1.41" shape="2.40,512.02 2.66,511.70 2.87,511.49 3.09,511.31 3.44,511.08"/>
        <lane id=":J84_0_2" index="2" speed="97.20" length="1.41" shape="4.86,514.06 4.95,513.95 5.02,513.88 5.09,513.82 5.21,513.75"/>
    </edge>
    <edge id=":J87_0" function="internal">
        <lane id=":J87_0_0" index="0" speed="97.20" length="1.15" shape="32.36,500.13 32.93,500.11 33.31,500.11 33.70,500.16 34.26,500.27"/>
        <lane id=":J87_0_1" index="1" speed="97.20" length="1.15" shape="32.50,503.32 32.84,503.31 33.08,503.32 33.31,503.35 33.64,503.41"/>
        <lane id=":J87_0_2" index="2" speed="97.20" length="1.15" shape="32.65,506.52 32.76,506.52 32.84,506.52 32.92,506.53 33.03,506.55"/>
    </edge>
    <edge id=":J88_0" function="internal">
        <lane id=":J88_0_0" index="0" speed="97.20" length="0.90" shape="83.70,509.94 83.79,509.95 83.85,509.96 83.91,509.97 84.00,509.97"/>
        <lane id=":J88_0_1" index="1" speed="97.20" length="0.90" shape="83.09,513.08 83.35,513.13 83.53,513.15 83.71,513.16 83.98,513.17"/>
        <lane id=":J88_0_2" index="2" speed="97.20" length="0.90" shape="82.48,516.22 82.91,516.30 83.21,516.34 83.52,516.36 83.96,516.37"/>
    </edge>
    <edge id=":J89_0" function="internal">
        <lane id=":J89_0_0" index="0" speed="97.20" length="1.27" shape="122.72,510.22 122.84,510.22 122.93,510.22 123.01,510.20 123.14,510.17"/>
        <lane id=":J89_0_1" index="1" speed="54.95" length="1.27" shape="122.70,513.42 123.07,513.42 123.33,513.40 123.59,513.36 123.95,513.26"/>
        <lane id=":J89_0_2" index="2" speed="70.92" length="1.27" shape="122.68,516.62 123.30,516.62 123.73,516.59 124.16,516.51 124.77,516.36"/>
    </edge>
    <edge id=":J9_0" function="internal">
        <lane id=":J9_0_0" index="0" speed="97.20" length="0.28" shape="-299.81,208.00 -300.03,208.00"/>
        <lane id=":J9_0_1" index="1" speed="97.20" length="0.28" shape="-299.81,204.80 -300.09,204.80"/>
        <lane id=":J9_0_2" index="2" speed="97.20" length="0.28" shape="-299.81,201.60 -300.16,201.60"/>
    </edge>
    <edge id=":J90_0" function="internal">
        <lane id=":J90_0_0" index="0" speed="97.20" length="1.26" shape="133.59,507.42 133.71,507.38 133.79,507.36 133.87,507.32 133.98,507.26"/>
        <lane id=":J90_0_1" index="1" speed="97.20" length="1.26" shape="134.40,510.51 134.76,510.41 135.01,510.33 135.24,510.22 135.56,510.04"/>
        <lane id=":J90_0_2" index="2" speed="97.20" length="1.26" shape="135.22,513.60 135.82,513.44 136.23,513.30 136.61,513.12 137.15,512.81"/>
    </edge>
    <edge id=":J91_0" function="internal">
        <lane id=":J91_0_0" index="0" speed="97.20" length="1.06" shape="146.96,499.83 147.05,499.78 147.11,499.74 147.16,499.70 147.24,499.63"/>
        <lane id=":J91_0_1" index="1" speed="97.20" length="1.06" shape="148.55,502.61 148.82,502.45 149.00,502.33 149.16,502.20 149.40,501.99"/>
        <lane id=":J91_0_2" index="2" speed="97.20" length="1.06" shape="150.13,505.39 150.59,505.13 150.89,504.93 151.17,504.70 151.56,504.35"/>
    </edge>
    <edge id=":J92_0" function="internal">
        <lane id=":J92_0_0" index="0" speed="97.20" length="0.54" shape="163.10,485.16 163.14,485.12 163.16,485.10 163.19,485.07 163.22,485.03"/>
        <lane id=":J92_0_1" index="1" speed="97.20" length="0.54" shape="165.25,487.52 165.37,487.41 165.45,487.34 165.53,487.25 165.63,487.13"/>
        <lane id=":J92_0_2" index="2" speed="97.20" length="0.54" shape="167.41,489.89 167.61,489.70 167.74,489.57 167.87,489.44 168.04,489.24"/>
    </edge>
    <edge id=":J93_0" function="internal">
        <lane id=":J93_0_0" index="0" speed="97.20" length="1.20" shape="183.59,461.70 183.99,461.25 184.28,460.97 184.60,460.71 185.08,460.37"/>
        <lane id=":J93_0_1" index="1" speed="97.20" length="1.20" shape="186.00,463.80 186.24,463.54 186.41,463.36 186.61,463.21 186.90,463.01"/>
        <lane id=":J93_0_2" index="2" speed="97.20" length="1.20" shape="188.41,465.91 188.49,465.82 188.55,465.76 188.62,465.71 188.71,465.64"/>
    </edge>
    <edge id=":J94_0" function="internal">
        <lane id=":J94_0_0" index="0" speed="97.20" length="0.75" shape="189.16,457.56 189.47,457.35 189.68,457.22 189.91,457.10 190.24,456.94"/>
        <lane id=":J94_0_1" index="1" speed="97.20" length="0.75" shape="190.98,460.20 191.16,460.07 191.29,459.99 191.42,459.92 191.62,459.82"/>
        <lane id=":J94_0_2" index="2" speed="97.20" length="0.75" shape="192.79,462.83 192.85,462.79 192.90,462.76 192.94,462.74 193.01,462.71"/>
    </edge>
    <edge id=":J95_0" function="internal">
        <lane id=":J95_0_0" index="0" speed="97.20" length="1.06" shape="197.31,453.55 197.78,453.32 198.12,453.19 198.46,453.09 198.97,452.96"/>
        <lane id=":J95_0_1" index="1" speed="97.20" length="1.06" shape="198.69,456.43 198.98,456.30 199.18,456.22 199.39,456.16 199.69,456.08"/>
        <lane id=":J95_0_2" index="2" speed="97.20" length="1.06" shape="200.08,459.32 200.17,459.27 200.24,459.25 200.31,459.23 200.41,459.20"/>
    </edge>
    <edge id=":J96_0" function="internal">
        <lane id=":J96_0_0" index="0" speed="97.20" length="1.09" shape="209.42,450.55 209.95,450.44 210.31,450.38 210.68,450.35 211.22,450.35"/>
        <lane id=":J96_0_1" index="1" speed="97.20" length="1.09" shape="210.14,453.67 210.46,453.60 210.68,453.57 210.90,453.55 211.22,453.55"/>
        <lane id=":J96_0_2" index="2" speed="97.20" length="1.09" shape="210.86,456.79 210.97,456.77 211.04,456.76 211.11,456.75 211.22,456.75"/>
    </edge>
    <edge id=":J97_0" function="internal">
        <lane id=":J97_0_0" index="0" speed="97.20" length="0.30" shape="1295.19,450.21 1295.40,450.21"/>
        <lane id=":J97_0_1" index="1" speed="97.20" length="0.30" shape="1295.20,453.41 1295.49,453.41"/>
        <lane id=":J97_0_2" index="2" speed="97.20" length="0.30" shape="1295.20,456.61 1295.58,456.60"/>
    </edge>
    <edge id=":J98_0" function="internal">