<?xml version="1.0" encoding="UTF-8"?>

<!-- generated on 2023-09-12 10:24:26 by Eclipse SUMO netedit Version 1.16.0
<configuration xmlns:xsi="http://www.w3.org/2001/XMLSchema-instance" xsi:noNamespaceSchemaLocation="http://sumo.dlr.de/xsd/netconvertConfiguration.xsd">

    <input>
        <sumo-net-file value="/home/reboldi/src/veins/examples/Monza/sumocfg/Monza2.net.xml"/>
    </input>

    <output>
        <output-file value="/home/reboldi/src/veins/examples/Monza/sumocfg/Monza2.net.xml"/>
    </output>

    <processing>
        <geometry.min-radius.fix.railways value="false"/>
        <geometry.max-grade.fix value="false"/>
        <offset.disable-normalization value="true"/>
        <lefthand value="0"/>
    </processing>

    <junctions>
        <no-turnarounds value="true"/>
        <junctions.corner-detail value="5"/>
        <junctions.limit-turn-speed value="5.50"/>
        <rectangular-lane-cut value="0"/>
    </junctions>

    <pedestrian>
        <walkingareas value="0"/>
    </pedestrian>

</configuration>
-->

<net version="1.16" junctionCornerDetail="5" limitTurnSpeed="5.50" xmlns:xsi="http://www.w3.org/2001/XMLSchema-instance" xsi:noNamespaceSchemaLocation="http://sumo.dlr.de/xsd/net_file.xsd">

    <location netOffset="0.00,0.00" convBoundary="-719.56,200.00,1371.44,1141.26" origBoundary="-10000000000.00,-10000000000.00,10000000000.00,10000000000.00" projParameter="!"/>

    <edge id=":J0_0" function="internal">
        <lane id=":J0_0_0" index="0" speed="93.60" length="0.17" shape="1093.29,207.63 1093.21,207.63"/>
        <lane id=":J0_0_1" index="1" speed="93.60" length="0.17" shape="1093.49,204.44 1093.23,204.43"/>
    </edge>
    <edge id=":J1_0" function="internal">
        <lane id=":J1_0_0" index="0" speed="32.00" length="0.38" shape="0.38,204.80 0.33,204.80 0.29,204.80 0.25,204.80 0.19,204.81"/>
        <lane id=":J1_0_1" index="1" speed="32.00" length="0.38" shape="0.38,201.60 0.21,201.60 0.10,201.60 -0.02,201.61 -0.19,201.63"/>
    </edge>
    <edge id=":J10_0" function="internal">
        <lane id=":J10_0_0" index="0" speed="97.20" length="0.30" shape="740.39,204.80 740.11,204.80"/>
        <lane id=":J10_0_1" index="1" speed="97.20" length="0.30" shape="740.42,201.60 740.11,201.60"/>
    </edge>
    <edge id=":J100_0" function="internal">
        <lane id=":J100_0_0" index="0" speed="48.50" length="0.76" shape="1341.30,442.88 1341.39,442.82 1341.46,442.78 1341.52,442.73 1341.60,442.65"/>
        <lane id=":J100_0_1" index="1" speed="48.50" length="0.76" shape="1342.90,445.65 1343.19,445.48 1343.38,445.35 1343.56,445.20 1343.81,444.97"/>
    </edge>
    <edge id=":J101_0" function="internal">
        <lane id=":J101_0_0" index="0" speed="48.50" length="1.10" shape="1354.80,430.08 1354.91,429.97 1354.99,429.88 1355.05,429.79 1355.12,429.64"/>
        <lane id=":J101_0_1" index="1" speed="10.75" length="1.10" shape="1357.00,432.40 1357.35,432.06 1357.58,431.80 1357.75,431.51 1357.98,431.08"/>
    </edge>
    <edge id=":J102_0" function="internal">
        <lane id=":J102_0_0" index="0" speed="57.50" length="1.11" shape="1363.50,412.98 1363.57,412.83 1363.61,412.73 1363.64,412.62 1363.66,412.45"/>
        <lane id=":J102_0_1" index="1" speed="10.68" length="1.11" shape="1366.36,414.42 1366.58,413.98 1366.70,413.66 1366.77,413.33 1366.84,412.84"/>
    </edge>
    <edge id=":J103_0" function="internal">
        <lane id=":J103_0_0" index="0" speed="65.00" length="0.56" shape="1366.61,388.18 1366.62,388.10 1366.62,388.04 1366.62,387.98 1366.62,387.90"/>
        <lane id=":J103_0_1" index="1" speed="65.00" length="0.56" shape="1369.78,388.56 1369.81,388.32 1369.83,388.15 1369.82,387.98 1369.81,387.73"/>
    </edge>
    <edge id=":J104_0" function="internal">
        <lane id=":J104_0_0" index="0" speed="67.50" length="0.39" shape="1364.97,357.49 1364.96,357.43 1364.96,357.39 1364.96,357.35 1364.95,357.30"/>
        <lane id=":J104_0_1" index="1" speed="67.50" length="0.39" shape="1368.16,357.32 1368.15,357.14 1368.14,357.03 1368.13,356.91 1368.10,356.73"/>
    </edge>
    <edge id=":J105_0" function="internal">
        <lane id=":J105_0_0" index="0" speed="72.50" length="1.30" shape="1361.01,335.24 1360.97,335.05 1360.93,334.92 1360.87,334.80 1360.77,334.64"/>
        <lane id=":J105_0_1" index="1" speed="8.92" length="1.30" shape="1364.16,334.67 1364.05,334.11 1363.93,333.72 1363.75,333.37 1363.44,332.88"/>
    </edge>
    <edge id=":J106_0" function="internal">
        <lane id=":J106_0_0" index="0" speed="77.50" length="0.61" shape="1342.33,306.58 1342.28,306.50 1342.24,306.45 1342.20,306.41 1342.13,306.34"/>
        <lane id=":J106_0_1" index="1" speed="77.50" length="0.61" shape="1345.00,304.82 1344.85,304.60 1344.74,304.44 1344.61,304.30 1344.43,304.11"/>
    </edge>
    <edge id=":J107_0" function="internal">
        <lane id=":J107_0_0" index="0" speed="80.00" length="0.89" shape="1309.28,272.66 1309.18,272.57 1309.12,272.51 1309.04,272.46 1308.93,272.39"/>
        <lane id=":J107_0_1" index="1" speed="21.99" length="0.89" shape="1311.57,270.43 1311.29,270.15 1311.09,269.97 1310.86,269.81 1310.52,269.61"/>
    </edge>
    <edge id=":J108_0" function="internal">
        <lane id=":J108_0_0" index="0" speed="82.50" length="0.63" shape="1246.67,236.69 1246.59,236.64 1246.53,236.61 1246.47,236.59 1246.38,236.56"/>
        <lane id=":J108_0_1" index="1" speed="82.50" length="0.63" shape="1248.26,233.91 1248.02,233.77 1247.85,233.69 1247.67,233.62 1247.40,233.53"/>
    </edge>
    <edge id=":J109_0" function="internal">
        <lane id=":J109_0_0" index="0" speed="87.50" length="0.84" shape="1175.66,212.81 1175.54,212.77 1175.46,212.75 1175.38,212.74 1175.25,212.73"/>
        <lane id=":J109_0_1" index="1" speed="87.50" length="0.84" shape="1176.68,209.78 1176.32,209.66 1176.08,209.59 1175.82,209.56 1175.45,209.53"/>
    </edge>
    <edge id=":J11_0" function="internal">
        <lane id=":J11_0_0" index="0" speed="83.60" length="0.10" shape="88.43,204.80 88.43,204.80"/>
        <lane id=":J11_0_1" index="1" speed="83.60" length="0.10" shape="88.43,201.60 88.43,201.60"/>
    </edge>
    <edge id=":J12_0" function="internal">
        <lane id=":J12_0_0" index="0" speed="57.50" length="0.10" shape="45.17,204.80 45.17,204.80"/>
        <lane id=":J12_0_1" index="1" speed="57.50" length="0.10" shape="45.17,201.60 45.17,201.60"/>
    </edge>
    <edge id=":J13_0" function="internal">
        <lane id=":J13_0_0" index="0" speed="40.50" length="0.10" shape="21.34,204.80 21.34,204.80"/>
        <lane id=":J13_0_1" index="1" speed="40.50" length="0.10" shape="21.34,201.60 21.34,201.60"/>
    </edge>
    <edge id=":J14_0" function="internal">
        <lane id=":J14_0_0" index="0" speed="82.50" length="0.10" shape="-560.95,696.32 -560.95,696.32"/>
        <lane id=":J14_0_1" index="1" speed="82.50" length="0.10" shape="-564.12,695.93 -564.12,695.93"/>
    </edge>
    <edge id=":J15_0" function="internal">
        <lane id=":J15_0_0" index="0" speed="70.00" length="0.30" shape="-565.10,730.18 -565.13,730.47"/>
        <lane id=":J15_0_1" index="1" speed="70.00" length="0.30" shape="-568.27,729.79 -568.31,730.10"/>
    </edge>
    <edge id=":J16_0" function="internal">
        <lane id=":J16_0_0" index="0" speed="83.60" length="0.10" shape="-28.46,549.22 -28.46,549.22"/>
        <lane id=":J16_0_1" index="1" speed="83.60" length="0.10" shape="-26.00,551.26 -26.00,551.26"/>
    </edge>
    <edge id=":J17_0" function="internal">
        <lane id=":J17_0_0" index="0" speed="88.00" length="0.29" shape="-339.06,205.57 -339.11,205.57 -339.14,205.58 -339.17,205.58 -339.21,205.58"/>
        <lane id=":J17_0_1" index="1" speed="88.00" length="0.29" shape="-339.13,202.37 -339.26,202.38 -339.35,202.38 -339.43,202.39 -339.56,202.40"/>
    </edge>
    <edge id=":J18_0" function="internal">
        <lane id=":J18_0_0" index="0" speed="88.00" length="0.59" shape="-383.02,210.46 -383.11,210.47 -383.17,210.47 -383.23,210.49 -383.31,210.51"/>
        <lane id=":J18_0_1" index="1" speed="88.00" length="0.59" shape="-383.37,207.27 -383.64,207.31 -383.81,207.33 -383.99,207.38 -384.24,207.45"/>
    </edge>
    <edge id=":J19_0" function="internal">
        <lane id=":J19_0_0" index="0" speed="88.00" length="0.68" shape="-418.25,221.14 -418.35,221.17 -418.41,221.20 -418.48,221.23 -418.56,221.28"/>
        <lane id=":J19_0_1" index="1" speed="88.00" length="0.68" shape="-419.18,218.08 -419.47,218.17 -419.67,218.24 -419.85,218.33 -420.12,218.48"/>
    </edge>
    <edge id=":J2_0" function="internal">
        <lane id=":J2_0_0" index="0" speed="25.00" length="1.79" shape="-8.15,207.23 -8.39,207.34 -8.54,207.44 -8.67,207.57 -8.82,207.79"/>
        <lane id=":J2_0_1" index="1" speed="7.42" length="1.79" shape="-9.45,204.30 -10.17,204.64 -10.63,204.94 -11.00,205.34 -11.46,205.98"/>
    </edge>
    <edge id=":J20_0" function="internal">
        <lane id=":J20_0_0" index="0" speed="88.00" length="0.57" shape="-449.27,238.34 -449.34,238.38 -449.39,238.41 -449.44,238.45 -449.51,238.50"/>
        <lane id=":J20_0_1" index="1" speed="88.00" length="0.57" shape="-450.82,235.54 -451.05,235.67 -451.19,235.76 -451.33,235.86 -451.53,236.02"/>
    </edge>
    <edge id=":J21_0" function="internal">
        <lane id=":J21_0_0" index="0" speed="88.00" length="0.62" shape="-475.19,263.40 -475.25,263.47 -475.29,263.52 -475.32,263.58 -475.37,263.65"/>
        <lane id=":J21_0_1" index="1" speed="88.00" length="0.62" shape="-477.58,261.28 -477.76,261.48 -477.88,261.63 -477.99,261.79 -478.13,262.03"/>
    </edge>
    <edge id=":J22_0" function="internal">
        <lane id=":J22_0_0" index="0" speed="88.00" length="0.57" shape="-495.79,298.31 -495.83,298.38 -495.85,298.43 -495.88,298.48 -495.91,298.56"/>
        <lane id=":J22_0_1" index="1" speed="88.00" length="0.57" shape="-498.54,296.68 -498.67,296.90 -498.75,297.05 -498.82,297.21 -498.91,297.45"/>
    </edge>
    <edge id=":J23_0" function="internal">
        <lane id=":J23_0_0" index="0" speed="88.00" length="0.31" shape="-509.86,336.22 -509.88,336.26 -509.89,336.29 -509.90,336.32 -509.91,336.37"/>
        <lane id=":J23_0_1" index="1" speed="88.00" length="0.31" shape="-512.86,335.11 -512.91,335.24 -512.94,335.32 -512.97,335.41 -513.00,335.55"/>
    </edge>
    <edge id=":J24_0" function="internal">
        <lane id=":J24_0_0" index="0" speed="89.00" length="0.44" shape="-522.90,385.53 -522.91,385.60 -522.92,385.64 -522.93,385.68 -522.94,385.75"/>
        <lane id=":J24_0_1" index="1" speed="89.00" length="0.44" shape="-525.99,384.72 -526.04,384.90 -526.07,385.03 -526.09,385.17 -526.11,385.36"/>
    </edge>
    <edge id=":J25_0" function="internal">
        <lane id=":J25_0_0" index="0" speed="19.50" length="0.90" shape="-566.46,742.09 -566.51,742.49 -566.56,742.76 -566.65,743.02 -566.80,743.39"/>
        <lane id=":J25_0_1" index="1" speed="50.00" length="0.90" shape="-569.64,741.72 -569.66,741.86 -569.67,741.95 -569.70,742.03 -569.75,742.16"/>
    </edge>
    <edge id=":J29_0" function="internal">
        <lane id=":J29_0_0" index="0" speed="34.83" length="0.86" shape="-569.01,748.68 -569.16,749.03 -569.28,749.27 -569.43,749.48 -569.66,749.79"/>
        <lane id=":J29_0_1" index="1" speed="35.00" length="0.86" shape="-571.96,747.45 -572.01,747.56 -572.05,747.64 -572.10,747.71 -572.18,747.82"/>
    </edge>
    <edge id=":J3_0" function="internal">
        <lane id=":J3_0_0" index="0" speed="22.00" length="0.32" shape="-12.01,217.31 -12.01,217.36 -12.01,217.39 -12.01,217.42 -12.01,217.47"/>
        <lane id=":J3_0_1" index="1" speed="22.00" length="0.32" shape="-15.20,217.09 -15.21,217.23 -15.22,217.33 -15.21,217.43 -15.21,217.57"/>
    </edge>
    <edge id=":J30_0" function="internal">
        <lane id=":J30_0_0" index="0" speed="35.00" length="0.72" shape="-576.18,755.56 -576.45,755.75 -576.63,755.86 -576.83,755.96 -577.13,756.08"/>
        <lane id=":J30_0_1" index="1" speed="35.00" length="0.72" shape="-578.03,752.95 -578.12,753.01 -578.18,753.05 -578.24,753.08 -578.34,753.12"/>
    </edge>
    <edge id=":J31_0" function="internal">
        <lane id=":J31_0_0" index="0" speed="36.50" length="0.54" shape="-583.53,758.71 -583.75,758.80 -583.90,758.85 -584.06,758.90 -584.29,758.95"/>
        <lane id=":J31_0_1" index="1" speed="36.50" length="0.54" shape="-584.74,755.75 -584.82,755.78 -584.87,755.80 -584.92,755.81 -585.00,755.83"/>
    </edge>
    <edge id=":J32_0" function="internal">
        <lane id=":J32_0_0" index="0" speed="36.50" length="0.53" shape="-620.95,767.25 -621.03,767.27 -621.08,767.29 -621.13,767.30 -621.20,767.33"/>
        <lane id=":J32_0_1" index="1" speed="36.50" length="0.53" shape="-621.66,764.13 -621.89,764.19 -622.04,764.23 -622.20,764.28 -622.42,764.37"/>
    </edge>
    <edge id=":J33_0" function="internal">
        <lane id=":J33_0_0" index="0" speed="35.00" length="1.86" shape="-623.08,768.10 -623.33,768.21 -623.49,768.31 -623.62,768.44 -623.78,768.66"/>
        <lane id=":J33_0_1" index="1" speed="7.31" length="1.86" shape="-624.29,765.14 -625.04,765.46 -625.53,765.76 -625.93,766.17 -626.41,766.83"/>
    </edge>
    <edge id=":J34_0" function="internal">
        <lane id=":J34_0_0" index="0" speed="35.00" length="0.75" shape="-624.71,770.00 -624.78,770.09 -624.81,770.15 -624.85,770.22 -624.89,770.33"/>
        <lane id=":J34_0_1" index="1" speed="35.00" length="0.75" shape="-627.34,768.17 -627.53,768.44 -627.65,768.64 -627.74,768.85 -627.87,769.16"/>
    </edge>
    <edge id=":J35_0" function="internal">
        <lane id=":J35_0_0" index="0" speed="52.50" length="0.24" shape="-626.20,773.67 -626.24,773.79"/>
        <lane id=":J35_0_1" index="1" speed="52.50" length="0.24" shape="-629.18,772.50 -629.30,772.84"/>
    </edge>
    <edge id=":J36_0" function="internal">
        <lane id=":J36_0_0" index="0" speed="65.50" length="0.86" shape="-714.26,1058.87 -714.30,1058.99 -714.32,1059.08 -714.32,1059.17 -714.33,1059.29"/>
        <lane id=":J36_0_1" index="1" speed="35.26" length="0.86" shape="-717.32,1057.93 -717.43,1058.29 -717.49,1058.55 -717.51,1058.81 -717.53,1059.19"/>
    </edge>
    <edge id=":J37_0" function="internal">
        <lane id=":J37_0_0" index="0" speed="59.50" length="0.84" shape="-703.51,1092.76 -703.44,1092.86 -703.38,1092.92 -703.32,1092.98 -703.22,1093.06"/>
        <lane id=":J37_0_1" index="1" speed="59.50" length="0.84" shape="-706.08,1094.66 -705.86,1094.96 -705.69,1095.16 -705.50,1095.33 -705.21,1095.56"/>
    </edge>
    <edge id=":J38_0" function="internal">
        <lane id=":J38_0_0" index="0" speed="59.50" length="1.46" shape="-693.71,1100.64 -693.54,1100.77 -693.41,1100.85 -693.27,1100.90 -693.06,1100.95"/>
        <lane id=":J38_0_1" index="1" speed="8.21" length="1.46" shape="-695.71,1103.14 -695.20,1103.54 -694.81,1103.77 -694.39,1103.92 -693.76,1104.07"/>
    </edge>
    <edge id=":J39_0" function="internal">
        <lane id=":J39_0_0" index="0" speed="68.00" length="0.30" shape="-675.31,1104.91 -675.04,1104.97"/>
        <lane id=":J39_0_1" index="1" speed="68.00" length="0.30" shape="-676.01,1108.03 -675.71,1108.10"/>
    </edge>
    <edge id=":J4_0" function="internal">
        <lane id=":J4_0_0" index="0" speed="21.00" length="0.44" shape="-11.47,235.03 -11.47,235.23 -11.47,235.36 -11.48,235.49 -11.50,235.69"/>
        <lane id=":J4_0_1" index="1" speed="21.00" length="0.44" shape="-14.67,235.13 -14.67,235.20 -14.67,235.24 -14.67,235.28 -14.68,235.35"/>
    </edge>
    <edge id=":J42_0" function="internal">
        <lane id=":J42_0_0" index="0" speed="70.00" length="0.22" shape="-445.27,1135.53 -445.16,1135.54"/>
        <lane id=":J42_0_1" index="1" speed="70.00" length="0.22" shape="-445.67,1138.71 -445.35,1138.74"/>
    </edge>
    <edge id=":J5_0" function="internal">
        <lane id=":J5_0_0" index="0" speed="24.00" length="0.27" shape="-28.54,245.13 -28.93,245.02"/>
        <lane id=":J5_0_1" index="1" speed="24.00" length="0.27" shape="-27.79,242.02 -27.92,241.98"/>
    </edge>
    <edge id=":J6_0" function="internal">
        <lane id=":J6_0_0" index="0" speed="41.50" length="0.30" shape="-38.98,241.67 -39.26,241.58"/>
        <lane id=":J6_0_1" index="1" speed="41.50" length="0.30" shape="-37.98,238.64 -38.27,238.54"/>
    </edge>
    <edge id=":J7_0" function="internal">
        <lane id=":J7_0_0" index="0" speed="71.50" length="0.66" shape="-127.23,212.84 -127.32,212.81 -127.39,212.79 -127.46,212.78 -127.55,212.77"/>
        <lane id=":J7_0_1" index="1" speed="71.50" length="0.66" shape="-126.24,209.80 -126.52,209.71 -126.71,209.66 -126.91,209.62 -127.20,209.59"/>
    </edge>
    <edge id=":J78_0" function="internal">
        <lane id=":J78_0_0" index="0" speed="65.00" length="0.34" shape="-429.89,1136.45 -429.84,1136.45 -429.80,1136.45 -429.77,1136.45 -429.72,1136.45"/>
        <lane id=":J78_0_1" index="1" speed="65.00" length="0.34" shape="-430.08,1139.64 -429.93,1139.65 -429.82,1139.65 -429.72,1139.65 -429.56,1139.65"/>
    </edge>
    <edge id=":J79_0" function="internal">
        <lane id=":J79_0_0" index="0" speed="60.00" length="1.00" shape="-415.92,1135.78 -415.78,1135.78 -415.67,1135.76 -415.58,1135.73 -415.44,1135.68"/>
        <lane id=":J79_0_1" index="1" speed="13.11" length="1.00" shape="-415.77,1138.98 -415.33,1138.95 -415.02,1138.91 -414.73,1138.83 -414.31,1138.68"/>
    </edge>
    <edge id=":J8_0" function="internal">
        <lane id=":J8_0_0" index="0" speed="92.60" length="0.35" shape="-200.18,204.81 -200.23,204.80 -200.26,204.80 -200.30,204.80 -200.35,204.80"/>
        <lane id=":J8_0_1" index="1" speed="92.60" length="0.35" shape="-199.83,201.63 -199.98,201.61 -200.09,201.60 -200.19,201.60 -200.35,201.60"/>
    </edge>
    <edge id=":J80_0" function="internal">
        <lane id=":J80_0_0" index="0" speed="57.50" length="1.14" shape="-399.67,1129.76 -399.51,1129.70 -399.40,1129.65 -399.31,1129.58 -399.18,1129.47"/>
        <lane id=":J80_0_1" index="1" speed="10.22" length="1.14" shape="-398.54,1132.76 -398.07,1132.57 -397.75,1132.42 -397.47,1132.22 -397.08,1131.89"/>
    </edge>
    <edge id=":J81_0" function="internal">
        <lane id=":J81_0_0" index="0" speed="74.00" length="1.29" shape="-387.75,1119.54 -387.61,1119.42 -387.52,1119.32 -387.45,1119.21 -387.36,1119.04"/>
        <lane id=":J81_0_1" index="1" speed="8.97" length="1.29" shape="-385.65,1121.96 -385.23,1121.58 -384.96,1121.28 -384.75,1120.95 -384.49,1120.44"/>
    </edge>
    <edge id=":J83_0" function="internal">
        <lane id=":J83_0_0" index="0" speed="92.60" length="0.77" shape="-226.06,787.67 -225.90,787.36 -225.79,787.16 -225.65,786.97 -225.43,786.71"/>
        <lane id=":J83_0_1" index="1" speed="92.60" length="0.77" shape="-223.18,789.07 -223.13,788.97 -223.09,788.90 -223.04,788.84 -222.97,788.75"/>
    </edge>
    <edge id=":J84_0" function="internal">
        <lane id=":J84_0_0" index="0" speed="15.96" length="0.94" shape="2.40,512.02 2.66,511.70 2.87,511.49 3.09,511.31 3.44,511.08"/>
        <lane id=":J84_0_1" index="1" speed="62.50" length="0.94" shape="4.86,514.06 4.95,513.95 5.02,513.88 5.09,513.82 5.21,513.75"/>
    </edge>
    <edge id=":J87_0" function="internal">
        <lane id=":J87_0_0" index="0" speed="62.50" length="0.76" shape="32.50,503.32 32.84,503.31 33.08,503.32 33.31,503.35 33.64,503.41"/>
        <lane id=":J87_0_1" index="1" speed="62.50" length="0.76" shape="32.65,506.52 32.76,506.52 32.84,506.52 32.92,506.53 33.03,506.55"/>
    </edge>
    <edge id=":J88_0" function="internal">
        <lane id=":J88_0_0" index="0" speed="70.00" length="0.31" shape="83.67,513.19 83.71,513.20 83.74,513.20 83.77,513.21 83.82,513.21"/>
        <lane id=":J88_0_1" index="1" speed="70.00" length="0.31" shape="83.05,516.33 83.19,516.36 83.28,516.37 83.38,516.38 83.51,516.40"/>
    </edge>
    <edge id=":J89_0" function="internal">
        <lane id=":J89_0_0" index="0" speed="70.00" length="0.33" shape="122.66,512.44 122.71,512.42 122.74,512.41 122.77,512.40 122.81,512.38"/>
        <lane id=":J89_0_1" index="1" speed="70.00" length="0.33" shape="123.67,515.47 123.81,515.43 123.90,515.39 123.99,515.36 124.12,515.30"/>
    </edge>
    <edge id=":J9_0" function="internal">
        <lane id=":J9_0_0" index="0" speed="92.60" length="0.28" shape="-299.83,204.80 -300.08,204.80"/>
        <lane id=":J9_0_1" index="1" speed="92.60" length="0.28" shape="-299.83,201.60 -300.14,201.60"/>
    </edge>
    <edge id=":J90_0" function="internal">
        <lane id=":J90_0_0" index="0" speed="64.00" length="0.45" shape="134.48,507.15 134.54,507.13 134.58,507.11 134.62,507.08 134.67,507.05"/>
        <lane id=":J90_0_1" index="1" speed="64.00" length="0.45" shape="135.78,510.07 135.97,509.99 136.09,509.93 136.21,509.86 136.38,509.76"/>
    </edge>
    <edge id=":J91_0" function="internal">
        <lane id=":J91_0_0" index="0" speed="59.50" length="0.59" shape="148.25,498.50 148.32,498.45 148.37,498.41 148.42,498.37 148.48,498.32"/>
        <lane id=":J91_0_1" index="1" speed="59.50" length="0.59" shape="149.95,501.20 150.18,501.06 150.33,500.96 150.46,500.84 150.66,500.66"/>
    </edge>
    <edge id=":J92_0" function="internal">
        <lane id=":J92_0_0" index="0" speed="62.50" length="0.30" shape="164.72,483.26 164.95,483.06"/>
        <lane id=":J92_0_1" index="1" speed="62.50" length="0.30" shape="166.90,485.61 167.11,485.42"/>
    </edge>
    <edge id=":J93_0" function="internal">
        <lane id=":J93_0_0" index="0" speed="64.00" length="0.44" shape="186.38,463.42 186.52,463.29 186.63,463.20 186.74,463.12 186.90,463.01"/>
        <lane id=":J93_0_1" index="1" speed="64.00" length="0.44" shape="188.54,465.78 188.59,465.74 188.62,465.71 188.66,465.68 188.71,465.64"/>
    </edge>
    <edge id=":J94_0" function="internal">
        <lane id=":J94_0_0" index="0" speed="66.00" length="0.50" shape="190.98,460.20 191.16,460.07 191.29,459.99 191.42,459.92 191.62,459.82"/>
        <lane id=":J94_0_1" index="1" speed="66.00" length="0.50" shape="192.79,462.83 192.85,462.79 192.90,462.76 192.94,462.74 193.01,462.71"/>
    </edge>
    <edge id=":J95_0" function="internal">
        <lane id=":J95_0_0" index="0" speed="70.00" length="0.71" shape="198.69,456.43 198.98,456.30 199.18,456.22 199.39,456.16 199.69,456.08"/>
        <lane id=":J95_0_1" index="1" speed="70.00" length="0.71" shape="200.08,459.32 200.17,459.27 200.24,459.25 200.31,459.23 200.41,459.20"/>
    </edge>
    <edge id=":J96_0" function="internal">
        <lane id=":J96_0_0" index="0" speed="84.60" length="0.73" shape="210.14,453.67 210.46,453.60 210.68,453.57 210.90,453.55 211.22,453.55"/>
        <lane id=":J96_0_1" index="1" speed="84.60" length="0.73" shape="210.86,456.79 210.97,456.77 211.04,456.76 211.11,456.75 211.22,456.75"/>
    </edge>
    <edge id=":J97_0" function="internal">
        <lane id=":J97_0_0" index="0" speed="81.10" length="0.30" shape="1269.36,454.06 1269.65,454.06"/>
        <lane id=":J97_0_1" index="1" speed="81.10" length="0.30" shape="1269.35,457.26 1269.66,457.26"/>
    </edge>
    <edge id=":J98_0" function="internal">
        <lane id=":J98_0_0" index="0" speed="60.00" length="0.28" shape="1311.77,453.17 1312.02,453.15"/>
        <lane id=":J98_0_1" index="1" speed="60.00" length="0.28" shape="1312.00,456.37 1312.31,456.34"/>
    </edge>
    <edge id=":J99_0" function="internal">
        <lane id=":J99_0_0" index="0" speed="52.50" length="0.66" shape="1328.91,450.01 1329.00,449.98 1329.06,449.95 1329.12,449.92 1329.21,449.87"/>
        <lane id=":J99_0_1" index="1" speed="52.50" length="0.66" shape="1329.91,453.05 1330.19,452.95 1330.38,452.88 1330.56,452.79 1330.81,452.64"/>
    </edge>

    <edge id="E1" from="J1" to="J2" priority="-1" shape="0.00,200.00 -5.09,200.61 -11.76,203.58">
        <lane id="E1_0" index="0" speed="28.00" length="9.26" shape="0.19,204.81 -3.80,205.29 -8.15,207.23"/>
        <lane id="E1_1" index="1" speed="28.00" length="9.26" shape="-0.19,201.63 -4.66,202.17 -9.45,204.30"/>
    </edge>
    <edge id="E100" from="J100" to="J101" priority="-1">
        <lane id="E100_0" index="0" speed="47.00" length="18.22" shape="1341.60,442.65 1354.80,430.08"/>
        <lane id="E100_1" index="1" speed="47.00" length="18.22" shape="1343.81,444.97 1357.00,432.40"/>
    </edge>
    <edge id="E101" from="J101" to="J102" priority="-1">
        <lane id="E101_0" index="0" speed="50.00" length="18.65" shape="1355.12,429.64 1363.50,412.98"/>
        <lane id="E101_1" index="1" speed="50.00" length="18.65" shape="1357.98,431.08 1366.36,414.42"/>
    </edge>
    <edge id="E102" from="J102" to="J103" priority="-1">
        <lane id="E102_0" index="0" speed="65.00" length="24.45" shape="1363.66,412.45 1366.61,388.18"/>
        <lane id="E102_1" index="1" speed="65.00" length="24.45" shape="1366.84,412.84 1369.78,388.56"/>
    </edge>
    <edge id="E103" from="J103" to="J104" priority="-1">
        <lane id="E103_0" index="0" speed="65.00" length="30.45" shape="1366.62,387.90 1364.97,357.49"/>
        <lane id="E103_1" index="1" speed="65.00" length="30.45" shape="1369.81,387.73 1368.16,357.32"/>
    </edge>
    <edge id="E104" from="J104" to="J105" priority="-1">
        <lane id="E104_0" index="0" speed="70.00" length="22.41" shape="1364.95,357.30 1361.01,335.24"/>
        <lane id="E104_1" index="1" speed="70.00" length="22.41" shape="1368.10,356.73 1364.16,334.67"/>
    </edge>
    <edge id="E105" from="J105" to="J106" priority="-1">
        <lane id="E105_0" index="0" speed="75.00" length="33.58" shape="1360.77,334.64 1342.33,306.58"/>
        <lane id="E105_1" index="1" speed="75.00" length="33.58" shape="1363.44,332.88 1345.00,304.82"/>
    </edge>
    <edge id="E106" from="J106" to="J107" priority="-1">
        <lane id="E106_0" index="0" speed="80.00" length="47.05" shape="1342.13,306.34 1309.28,272.66"/>
        <lane id="E106_1" index="1" speed="80.00" length="47.05" shape="1344.43,304.11 1311.57,270.43"/>
    </edge>
    <edge id="E107" from="J107" to="J108" priority="-1">
        <lane id="E107_0" index="0" speed="80.00" length="71.77" shape="1308.93,272.39 1246.67,236.69"/>
        <lane id="E107_1" index="1" speed="80.00" length="71.77" shape="1310.52,269.61 1248.26,233.91"/>
    </edge>
    <edge id="E108" from="J108" to="J109" priority="-1">
        <lane id="E108_0" index="0" speed="85.00" length="74.60" shape="1246.38,236.56 1175.66,212.81"/>
        <lane id="E108_1" index="1" speed="85.00" length="74.60" shape="1247.40,233.53 1176.68,209.78"/>
    </edge>
    <edge id="E109" from="J109" to="J0" priority="-1">
        <lane id="E109_0" index="0" speed="90.00" length="82.11" shape="1175.25,212.73 1093.29,207.63"/>
        <lane id="E109_1" index="1" speed="90.00" length="82.11" shape="1175.45,209.53 1093.49,204.44"/>
    </edge>
    <edge id="E16" from="J9" to="J17" priority="-1">
        <lane id="E16_0" index="0" speed="88.00" length="38.99" shape="-300.08,204.80 -339.06,205.57"/>
        <lane id="E16_1" index="1" speed="88.00" length="38.99" shape="-300.14,201.60 -339.13,202.37"/>
    </edge>
    <edge id="E17" from="J17" to="J18" priority="-1">
        <lane id="E17_0" index="0" speed="88.00" length="44.08" shape="-339.21,205.58 -383.02,210.46"/>
        <lane id="E17_1" index="1" speed="88.00" length="44.08" shape="-339.56,202.40 -383.37,207.27"/>
    </edge>
    <edge id="E18" from="J18" to="J19" priority="-1">
        <lane id="E18_0" index="0" speed="88.00" length="36.52" shape="-383.31,210.51 -418.25,221.14"/>
        <lane id="E18_1" index="1" speed="88.00" length="36.52" shape="-384.24,207.45 -419.18,218.08"/>
    </edge>
    <edge id="E19" from="J19" to="J20" priority="-1">
        <lane id="E19_0" index="0" speed="88.00" length="35.13" shape="-418.56,221.28 -449.27,238.34"/>
        <lane id="E19_1" index="1" speed="88.00" length="35.13" shape="-420.12,218.48 -450.82,235.54"/>
    </edge>
    <edge id="E2" from="J2" to="J3" priority="-1" shape="-11.76,203.58 -16.34,210.29 -16.82,217.30">
        <lane id="E2_0" index="0" speed="22.00" length="11.28" shape="-8.82,207.79 -11.64,211.92 -12.01,217.31"/>
        <lane id="E2_1" index="1" speed="22.00" length="11.28" shape="-11.46,205.98 -14.77,210.83 -15.20,217.09"/>
    </edge>
    <edge id="E20" from="J20" to="J21" priority="-1" shape="-452.10,234.42 -465.74,245.56 -479.19,260.68">
        <lane id="E20_0" index="0" speed="88.00" length="36.14" shape="-449.51,238.50 -462.41,249.04 -475.19,263.40"/>
        <lane id="E20_1" index="1" speed="88.00" length="36.14" shape="-451.53,236.02 -464.63,246.72 -477.58,261.28"/>
    </edge>
    <edge id="E21" from="J21" to="J22" priority="-1">
        <lane id="E21_0" index="0" speed="88.00" length="40.22" shape="-475.37,263.65 -495.79,298.31"/>
        <lane id="E21_1" index="1" speed="88.00" length="40.22" shape="-478.13,262.03 -498.54,296.68"/>
    </edge>
    <edge id="E22" from="J22" to="J23" priority="-1">
        <lane id="E22_0" index="0" speed="88.00" length="40.16" shape="-495.91,298.56 -509.86,336.22"/>
        <lane id="E22_1" index="1" speed="88.00" length="40.16" shape="-498.91,297.45 -512.86,335.11"/>
    </edge>
    <edge id="E23" from="J23" to="J24" priority="-1">
        <lane id="E23_0" index="0" speed="88.00" length="50.85" shape="-509.91,336.37 -522.90,385.53"/>
        <lane id="E23_1" index="1" speed="88.00" length="50.85" shape="-513.00,335.55 -525.99,384.72"/>
    </edge>
    <edge id="E24" from="J24" to="J14" priority="-1">
        <lane id="E24_0" index="0" speed="90.00" length="312.89" shape="-522.94,385.75 -560.95,696.32"/>
        <lane id="E24_1" index="1" speed="90.00" length="312.89" shape="-526.11,385.36 -564.12,695.93"/>
    </edge>
    <edge id="E28" from="J25" to="J29" priority="-1">
        <lane id="E28_0" index="0" speed="35.00" length="5.73" shape="-566.80,743.39 -569.01,748.68"/>
        <lane id="E28_1" index="1" speed="35.00" length="5.73" shape="-569.75,742.16 -571.96,747.45"/>
    </edge>